$DATA1 SOURCE='HSPICE' VERSION='D-2010.03-SP1 32-BIT'
.TITLE '** hspice file for nand2_ld'
 a_rise_propagation_delay a_fall_propagation_delay  
 b_rise_propagation_delay b_fall_propagation_delay temper            
 alter#            
  1.186e-10        1.155e-10        1.128e-10        1.225e-10        
   27.0000        1                 
