$DATA1 SOURCE='HSPICE' VERSION='D-2010.03-SP1 32-BIT'
.TITLE '** hspice file for nand2_ld'
 x_a_rise_propagation_delay x_a_fall_propagation_delay  
 x_b_rise_propagation_delay x_b_fall_propagation_delay  
 a_propagation    b_propagation    temper           alter#            
  1.186e-10        1.155e-10        1.128e-10        1.225e-10        
  1.170e-10        1.176e-10         27.0000        1                 
