$DATA1 SOURCE='HSPICE' VERSION='D-2010.03-SP1 32-BIT'
.TITLE '** hspice file for and2_ld'
 x_a_fall_propagation_delay x_a_rise_propagation_delay  
 x_b_fall_propagation_delay x_b_rise_propagation_delay  
 a_propagation    b_propagation    temper           alter#            
  1.714e-10        7.206e-11        1.797e-10        6.829e-11        
  1.217e-10        1.240e-10         27.0000        1                 
