$DATA1 SOURCE='HSPICE' VERSION='D-2010.03-SP1 32-BIT'
.TITLE '** hspice file for nand3_ld'
 a_rise_propagation_delay a_fall_propagation_delay  
 b_rise_propagation_delay b_fall_propagation_delay  
 c_rise_propagation_delay c_fall_propagation_delay temper            
 alter#            
  1.280e-10        1.576e-10        1.249e-10        1.597e-10        
  1.167e-10        1.584e-10         27.0000        1                 
